*.MODEL 1N5822 D
*IS=2.5069u N=1.0281 RS=11.15m IKF=403 CJO=980p M=.47978 VJ=.3905 ISR=5.226u NR=4.995 EG=.69
*XTI=2 TT=0 FC=0.5 BV=40 IBV=100u Iave=3 Vpk=40 mfg=ST type=Schottky

.SUBCKT 1N5822 1 2

D1 1 2 1N5822
*
.MODEL 1N5822 D
+IS=1.004E-15
+RS=.5875
+IKF=0
+N=1
+XTITUN=3
+EG=1.11
+CJO=160E-12
+M=.5484
+VJ=.75
+FC=.5
+ISR=1.8E-9
+NR=2
+BV=5.1
+IBV=27.721E-3
+NBV=1.1779
.ENDS
*